# created with PyMOL 2.5.2
@<TRIPOS>MOLECULE
7d3i
33 36 1                 
SMALL
USER_CHARGES
@<TRIPOS>ATOM
1	 O01	-15.044	-23.660	1.343	O.2	1	GQU401	0.000	
2	 C02	-15.660	-23.577	0.291	C.2	1	GQU401	0.000	
3	 N03	-15.988	-24.642	-0.435	N.pl3	1	GQU401	0.000	
4	 C04	-16.505	-24.632	-1.810	C.3	1	GQU401	0.000	
5	 C05	-16.954	-26.050	-2.049	C.3	1	GQU401	0.000	
6	 C06	-18.463	-26.136	-1.868	C.3	1	GQU401	0.000	
7	 C07	-18.738	-27.121	-0.732	C.3	1	GQU401	0.000	
8	 C08	-17.417	-27.791	-0.418	C.3	1	GQU401	0.000	
9	 C09	-16.311	-26.908	-0.980	C.3	1	GQU401	0.000	
10	 C10	-15.874	-25.986	0.134	C.3	1	GQU401	0.000	
11	 C11	-14.476	-26.349	0.517	C.2	1	GQU401	0.000	
12	 O12	-13.546	-26.025	-0.202	O.2	1	GQU401	0.000	
13	 N13	-14.328	-26.951	1.692	N.pl3	1	GQU401	0.000	
14	 C14	-13.029	-27.435	2.124	C.3	1	GQU401	0.000	
15	 C15	-13.185	-28.929	2.424	C.3	1	GQU401	0.000	
16	 O16	-11.914	-29.501	2.733	O.3	1	GQU401	0.000	
17	 C17	-12.443	-26.610	3.283	C.3	1	GQU401	0.000	
18	 C18	-12.094	-25.160	2.904	C.3	1	GQU401	0.000	
19	 C19	-10.967	-25.040	1.879	C.3	1	GQU401	0.000	
20	 C20	-10.123	-23.844	2.357	C.3	1	GQU401	0.000	
21	 N21	-10.519	-23.633	3.741	N.pl3	1	GQU401	0.000	
22	 C22	-11.575	-24.372	4.077	C.2	1	GQU401	0.000	
23	 O23	-12.101	-24.393	5.174	O.2	1	GQU401	0.000	
24	 C24	-16.083	-22.223	-0.248	C.3	1	GQU401	0.000	
25	 C25	-14.872	-21.496	-0.808	C.3	1	GQU401	0.000	
26	 C26	-15.239	-20.052	-1.109	C.2	1	GQU401	0.000	
27	 C27	-14.749	-19.055	-0.282	C.2	1	GQU401	0.000	
28	 C28	-15.057	-17.723	-0.516	C.2	1	GQU401	0.000	
29	 C30	-15.840	-17.365	-1.602	C.2	1	GQU401	0.000	
30	 C31	-16.360	-18.364	-2.411	C.2	1	GQU401	0.000	
31	 C33	-16.061	-19.711	-2.178	C.2	1	GQU401	0.000	
32	 F29	-14.550	-16.785	0.298	 F	1	GQU401	0.000	
33	 F32	-17.126	-18.015	-3.452	 F	1	GQU401	0.000	
@<TRIPOS>BOND
1 1 2 2
2 2 3 1
3 3 4 1
4 4 5 1
5 5 6 1
6 5 9 1
7 6 7 1
8 7 8 1
9 8 9 1
10 3 10 1
11 9 10 1
12 10 11 1
13 11 12 2
14 11 13 1
15 13 14 1
16 14 15 1
17 15 16 1
18 14 17 1
19 17 18 1
20 18 19 1
21 19 20 1
22 20 21 1
23 18 22 1
24 21 22 1
25 22 23 2
26 2 24 1
27 24 25 1
28 25 26 1
29 26 27 ar
30 26 31 ar
31 27 28 ar
32 28 29 ar
33 28 32 1
34 29 30 ar
35 30 31 ar
36 30 33 1
@<TRIPOS>SUBSTRUCTURE
1	GQU401	1	GROUP	1 A	GQU
